


 39 43  0  0  0  0  0  0  0  0999 V2000
   34.9868  -17.5518   25.5881 N   0  0  0  0  0  0  0  0  0  0  0  0
   34.2773  -18.6155   25.2332 C   0  0  0  0  0  0  0  0  0  0  0  0
   32.9387  -18.5571   25.0809 O   0  0  0  0  0  0  0  0  0  0  0  0
   34.8888  -19.7928   25.0783 N   0  0  0  0  0  0  0  0  0  0  0  0
   36.1823  -19.8697   25.2304 C   0  0  0  0  0  0  0  0  0  0  0  0
   36.9025  -18.8033   25.5740 N   0  0  0  0  0  0  0  0  0  0  0  0
   36.2970  -17.6288   25.7478 C   0  0  0  0  0  0  0  0  0  0  0  0
   36.9311  -16.6721   26.0708 O   0  0  0  0  0  0  0  0  0  0  0  0
   36.7921  -21.1588   25.0076 N   0  0  0  0  0  0  0  0  0  0  0  0
   37.7689  -21.2709   25.0590 H   0  0  0  0  0  0  0  0  0  0  0  0
   35.9274  -22.2867   24.7056 C   0  0  0  0  0  0  0  0  0  0  0  0
   35.3305  -22.9599   25.7787 C   0  0  0  0  0  0  0  0  0  0  0  0
   34.4734  -24.0527   25.5289 C   0  0  0  0  0  0  0  0  0  0  0  0
   33.7103  -24.9392   26.3583 C   0  0  0  0  0  0  0  0  0  0  0  0
   33.0887  -25.7820   25.5576 N   0  0  0  0  0  0  0  0  0  0  0  0
   32.2076  -26.8472   25.9848 C   0  0  0  0  0  0  0  0  0  0  0  0
   33.3773  -25.5149   24.2846 N   0  0  0  0  0  0  0  0  0  0  0  0
   34.2236  -24.4781   24.2263 C   0  0  0  0  0  0  0  0  0  0  0  0
   34.8206  -23.8035   23.1366 C   0  0  0  0  0  0  0  0  0  0  0  0
   35.6623  -22.7284   23.3853 C   0  0  0  0  0  0  0  0  0  0  0  0
   36.3929  -21.9105   21.9882 Cl  0  0  0  0  0  0  0  0  0  0  0  0
   34.3019  -16.2792   25.6904 C   0  0  0  0  0  0  0  0  0  0  0  0
   33.6305  -17.1548   22.5407 C   0  0  0  0  0  0  0  0  0  0  0  0
   34.1762  -15.9011   23.1132 C   0  0  0  0  0  0  0  0  0  0  0  0
   34.5212  -14.8397   22.3207 N   0  0  0  0  0  0  0  0  0  0  0  0
   34.9873  -13.7862   23.0063 N   0  0  0  0  0  0  0  0  0  0  0  0
   34.9567  -14.1961   24.2742 C   0  0  0  0  0  0  0  0  0  0  0  0
   34.4610  -15.5152   24.4125 C   0  0  0  0  0  0  0  0  0  0  0  0
   34.4350  -14.8490   21.3400 H   0  0  0  0  0  0  0  0  0  0  0  0
   38.3427  -18.8992   25.7558 C   0  0  0  0  0  0  0  0  0  0  0  0
   39.0691  -18.4592   24.4882 C   0  0  0  0  0  0  0  0  0  0  0  0
   38.5627  -18.7589   23.2181 C   0  0  0  0  0  0  0  0  0  0  0  0
   39.2499  -18.3205   22.0988 C   0  0  0  0  0  0  0  0  0  0  0  0
   38.8164  -18.5730   20.8295 F   0  0  0  0  0  0  0  0  0  0  0  0
   40.4279  -17.6197   22.2396 C   0  0  0  0  0  0  0  0  0  0  0  0
   41.0617  -17.2222   21.1099 F   0  0  0  0  0  0  0  0  0  0  0  0
   40.9379  -17.3241   23.4908 C   0  0  0  0  0  0  0  0  0  0  0  0
   40.2528  -17.7513   24.6088 C   0  0  0  0  0  0  0  0  0  0  0  0
   40.7309  -17.4676   25.8479 F   0  0  0  0  0  0  0  0  0  0  0  0
 23 24  1  0  0  0
 24 25  1  0  0  0
 25 26  1  0  0  0
 26 27  2  0  0  0
 27 28  1  0  0  0
 28 22  1  0  0  0
 22  1  1  0  0  0
  1  2  1  0  0  0
  2  3  2  0  0  0
  2  4  1  0  0  0
  4  5  2  0  0  0
  5  9  1  0  0  0
  9 11  1  0  0  0
 11 12  2  0  0  0
 12 13  1  0  0  0
 13 14  2  0  0  0
 14 15  1  0  0  0
 15 16  1  0  0  0
 15 17  1  0  0  0
 17 18  2  0  0  0
 18 19  1  0  0  0
 19 20  2  0  0  0
 20 21  1  0  0  0
  5  6  1  0  0  0
  6 30  1  0  0  0
 30 31  1  0  0  0
 31 32  2  0  0  0
 32 33  1  0  0  0
 33 34  1  0  0  0
 33 35  2  0  0  0
 35 36  1  0  0  0
 35 37  1  0  0  0
 37 38  2  0  0  0
 38 39  1  0  0  0
  6  7  1  0  0  0
  7  8  2  0  0  0
 28 24  2  0  0  0
  7  1  1  0  0  0
 20 11  1  0  0  0
 38 31  1  0  0  0
 18 13  1  0  0  0
 25 29  1  0  0  0
  9 10  1  0  0  0
M  END
> <minimizedAffinity>
-6.69024

> <minimizedRMSD>
1.89346

$$$$
