


 38 42  0  0  0  0  0  0  0  0999 V2000
   35.2598  -16.6254   23.5653 N   0  0  0  0  0  0  0  0  0  0  0  0
   34.6387  -17.7293   23.1703 C   0  0  0  0  0  0  0  0  0  0  0  0
   33.3806  -17.7016   22.6860 O   0  0  0  0  0  0  0  0  0  0  0  0
   35.2477  -18.9107   23.3042 N   0  0  0  0  0  0  0  0  0  0  0  0
   36.4622  -18.9572   23.7785 C   0  0  0  0  0  0  0  0  0  0  0  0
   37.0956  -17.8515   24.1663 N   0  0  0  0  0  0  0  0  0  0  0  0
   36.4876  -16.6707   24.0524 C   0  0  0  0  0  0  0  0  0  0  0  0
   37.0412  -15.6773   24.4107 O   0  0  0  0  0  0  0  0  0  0  0  0
   37.0840  -20.2572   23.8600 N   0  0  0  0  0  0  0  0  0  0  0  0
   38.0528  -20.3450   24.0118 H   0  0  0  0  0  0  0  0  0  0  0  0
   36.2431  -21.4330   23.7123 C   0  0  0  0  0  0  0  0  0  0  0  0
   35.5763  -21.9079   24.8486 C   0  0  0  0  0  0  0  0  0  0  0  0
   34.7396  -23.0396   24.7464 C   0  0  0  0  0  0  0  0  0  0  0  0
   33.9236  -23.7707   25.6714 C   0  0  0  0  0  0  0  0  0  0  0  0
   33.3585  -24.7536   24.9987 N   0  0  0  0  0  0  0  0  0  0  0  0
   32.4522  -25.7352   25.5541 C   0  0  0  0  0  0  0  0  0  0  0  0
   33.7318  -24.7187   23.7202 N   0  0  0  0  0  0  0  0  0  0  0  0
   34.5786  -23.6981   23.5296 C   0  0  0  0  0  0  0  0  0  0  0  0
   35.2465  -23.2249   22.3770 C   0  0  0  0  0  0  0  0  0  0  0  0
   36.0681  -22.1110   22.4803 C   0  0  0  0  0  0  0  0  0  0  0  0
   36.8898  -21.5510   21.0086 Cl  0  0  0  0  0  0  0  0  0  0  0  0
   34.5937  -15.3564   23.3526 C   0  0  0  0  0  0  0  0  0  0  0  0
   31.8035  -12.8497   26.4320 C   0  0  0  0  0  0  0  0  0  0  0  0
   32.7493  -13.8188   25.9486 N   0  0  0  0  0  0  0  0  0  0  0  0
   33.4126  -14.7658   26.6597 C   0  0  0  0  0  0  0  0  0  0  0  0
   34.1821  -15.4594   25.8540 N   0  0  0  0  0  0  0  0  0  0  0  0
   33.9421  -14.8894   24.6204 C   0  0  0  0  0  0  0  0  0  0  0  0
   33.0763  -13.8635   24.6460 N   0  0  0  0  0  0  0  0  0  0  0  0
   38.4445  -17.9121   24.7076 C   0  0  0  0  0  0  0  0  0  0  0  0
   39.4715  -17.8903   23.5792 C   0  0  0  0  0  0  0  0  0  0  0  0
   39.0898  -18.0689   22.2444 C   0  0  0  0  0  0  0  0  0  0  0  0
   40.0577  -18.0216   21.2553 C   0  0  0  0  0  0  0  0  0  0  0  0
   39.7606  -18.1850   19.9333 F   0  0  0  0  0  0  0  0  0  0  0  0
   41.3800  -17.8248   21.5891 C   0  0  0  0  0  0  0  0  0  0  0  0
   42.2850  -17.7951   20.5811 F   0  0  0  0  0  0  0  0  0  0  0  0
   41.7663  -17.6529   22.9059 C   0  0  0  0  0  0  0  0  0  0  0  0
   40.8047  -17.6908   23.8939 C   0  0  0  0  0  0  0  0  0  0  0  0
   41.1595  -17.5183   25.1935 F   0  0  0  0  0  0  0  0  0  0  0  0
 23 24  1  0  0  0
 24 25  1  0  0  0
 25 26  2  0  0  0
 26 27  1  0  0  0
 27 22  1  0  0  0
 22  1  1  0  0  0
  1  2  1  0  0  0
  2  3  2  0  0  0
  2  4  1  0  0  0
  4  5  2  0  0  0
  5  9  1  0  0  0
  9 11  1  0  0  0
 11 12  2  0  0  0
 12 13  1  0  0  0
 13 14  2  0  0  0
 14 15  1  0  0  0
 15 16  1  0  0  0
 15 17  1  0  0  0
 17 18  2  0  0  0
 18 19  1  0  0  0
 19 20  2  0  0  0
 20 21  1  0  0  0
  5  6  1  0  0  0
  6 29  1  0  0  0
 29 30  1  0  0  0
 30 31  2  0  0  0
 31 32  1  0  0  0
 32 33  1  0  0  0
 32 34  2  0  0  0
 34 35  1  0  0  0
 34 36  1  0  0  0
 36 37  2  0  0  0
 37 38  1  0  0  0
  6  7  1  0  0  0
  7  8  2  0  0  0
 27 28  2  0  0  0
 28 24  1  0  0  0
  7  1  1  0  0  0
 20 11  1  0  0  0
 37 30  1  0  0  0
 18 13  1  0  0  0
  9 10  1  0  0  0
M  END
> <minimizedAffinity>
-9.79857

> <minimizedRMSD>
0.85643

$$$$



 38 42  0  0  0  0  0  0  0  0999 V2000
   35.7054  -17.3184   25.8316 N   0  0  0  0  0  0  0  0  0  0  0  0
   34.8956  -18.1567   25.1976 C   0  0  0  0  0  0  0  0  0  0  0  0
   33.5671  -17.9388   25.1206 O   0  0  0  0  0  0  0  0  0  0  0  0
   35.3922  -19.2800   24.6719 N   0  0  0  0  0  0  0  0  0  0  0  0
   36.6739  -19.5114   24.7451 C   0  0  0  0  0  0  0  0  0  0  0  0
   37.4945  -18.6671   25.3679 N   0  0  0  0  0  0  0  0  0  0  0  0
   37.0037  -17.5528   25.9107 C   0  0  0  0  0  0  0  0  0  0  0  0
   37.7281  -16.7990   26.4839 O   0  0  0  0  0  0  0  0  0  0  0  0
   37.1577  -20.7195   24.1208 N   0  0  0  0  0  0  0  0  0  0  0  0
   38.0990  -20.8032   23.8447 H   0  0  0  0  0  0  0  0  0  0  0  0
   36.2196  -21.8090   23.9104 C   0  0  0  0  0  0  0  0  0  0  0  0
   35.5871  -22.3547   25.0344 C   0  0  0  0  0  0  0  0  0  0  0  0
   34.6593  -23.4056   24.8732 C   0  0  0  0  0  0  0  0  0  0  0  0
   33.8454  -24.1718   25.7714 C   0  0  0  0  0  0  0  0  0  0  0  0
   33.1653  -25.0331   25.0411 N   0  0  0  0  0  0  0  0  0  0  0  0
   32.2196  -26.0012   25.5527 C   0  0  0  0  0  0  0  0  0  0  0  0
   33.4626  -24.8873   23.7505 N   0  0  0  0  0  0  0  0  0  0  0  0
   34.3741  -23.9156   23.6089 C   0  0  0  0  0  0  0  0  0  0  0  0
   35.0066  -23.3700   22.4683 C   0  0  0  0  0  0  0  0  0  0  0  0
   35.9180  -22.3358   22.6297 C   0  0  0  0  0  0  0  0  0  0  0  0
   36.6913  -21.6808   21.1711 Cl  0  0  0  0  0  0  0  0  0  0  0  0
   35.1441  -16.0820   26.3380 C   0  0  0  0  0  0  0  0  0  0  0  0
   32.9067  -12.7844   23.5583 C   0  0  0  0  0  0  0  0  0  0  0  0
   33.8765  -13.7530   23.9928 N   0  0  0  0  0  0  0  0  0  0  0  0
   34.9729  -14.1934   23.3246 C   0  0  0  0  0  0  0  0  0  0  0  0
   35.6007  -15.0840   24.0552 N   0  0  0  0  0  0  0  0  0  0  0  0
   34.8237  -15.1648   25.1929 C   0  0  0  0  0  0  0  0  0  0  0  0
   33.7613  -14.3449   25.1952 N   0  0  0  0  0  0  0  0  0  0  0  0
   38.9207  -18.9384   25.4582 C   0  0  0  0  0  0  0  0  0  0  0  0
   39.6441  -18.3975   24.2285 C   0  0  0  0  0  0  0  0  0  0  0  0
   39.1219  -18.5726   22.9416 C   0  0  0  0  0  0  0  0  0  0  0  0
   39.8072  -18.0462   21.8597 C   0  0  0  0  0  0  0  0  0  0  0  0
   39.3589  -18.1756   20.5772 F   0  0  0  0  0  0  0  0  0  0  0  0
   40.9982  -17.3803   22.0516 C   0  0  0  0  0  0  0  0  0  0  0  0
   41.6293  -16.8927   20.9562 F   0  0  0  0  0  0  0  0  0  0  0  0
   41.5237  -17.2076   23.3192 C   0  0  0  0  0  0  0  0  0  0  0  0
   40.8406  -17.7229   24.4008 C   0  0  0  0  0  0  0  0  0  0  0  0
   41.3340  -17.5603   25.6557 F   0  0  0  0  0  0  0  0  0  0  0  0
 23 24  1  0  0  0
 24 25  1  0  0  0
 25 26  2  0  0  0
 26 27  1  0  0  0
 27 22  1  0  0  0
 22  1  1  0  0  0
  1  2  1  0  0  0
  2  3  2  0  0  0
  2  4  1  0  0  0
  4  5  2  0  0  0
  5  9  1  0  0  0
  9 11  1  0  0  0
 11 12  2  0  0  0
 12 13  1  0  0  0
 13 14  2  0  0  0
 14 15  1  0  0  0
 15 16  1  0  0  0
 15 17  1  0  0  0
 17 18  2  0  0  0
 18 19  1  0  0  0
 19 20  2  0  0  0
 20 21  1  0  0  0
  5  6  1  0  0  0
  6 29  1  0  0  0
 29 30  1  0  0  0
 30 31  2  0  0  0
 31 32  1  0  0  0
 32 33  1  0  0  0
 32 34  2  0  0  0
 34 35  1  0  0  0
 34 36  1  0  0  0
 36 37  2  0  0  0
 37 38  1  0  0  0
  6  7  1  0  0  0
  7  8  2  0  0  0
 27 28  2  0  0  0
 28 24  1  0  0  0
  7  1  1  0  0  0
 20 11  1  0  0  0
 37 30  1  0  0  0
 18 13  1  0  0  0
  9 10  1  0  0  0
M  END
> <minimizedAffinity>
-7.60549

> <minimizedRMSD>
2.27615

$$$$



 38 42  0  0  0  0  0  0  0  0999 V2000
   35.2598  -16.6254   23.5653 N   0  0  0  0  0  0  0  0  0  0  0  0
   34.6387  -17.7293   23.1703 C   0  0  0  0  0  0  0  0  0  0  0  0
   33.3806  -17.7016   22.6860 O   0  0  0  0  0  0  0  0  0  0  0  0
   35.2477  -18.9107   23.3042 N   0  0  0  0  0  0  0  0  0  0  0  0
   36.4622  -18.9572   23.7785 C   0  0  0  0  0  0  0  0  0  0  0  0
   37.0956  -17.8515   24.1663 N   0  0  0  0  0  0  0  0  0  0  0  0
   36.4876  -16.6707   24.0524 C   0  0  0  0  0  0  0  0  0  0  0  0
   37.0412  -15.6773   24.4107 O   0  0  0  0  0  0  0  0  0  0  0  0
   37.0840  -20.2572   23.8600 N   0  0  0  0  0  0  0  0  0  0  0  0
   38.0528  -20.3450   24.0118 H   0  0  0  0  0  0  0  0  0  0  0  0
   36.2431  -21.4330   23.7123 C   0  0  0  0  0  0  0  0  0  0  0  0
   35.5763  -21.9079   24.8486 C   0  0  0  0  0  0  0  0  0  0  0  0
   34.7396  -23.0396   24.7464 C   0  0  0  0  0  0  0  0  0  0  0  0
   33.9236  -23.7707   25.6714 C   0  0  0  0  0  0  0  0  0  0  0  0
   33.3585  -24.7536   24.9987 N   0  0  0  0  0  0  0  0  0  0  0  0
   32.4522  -25.7352   25.5541 C   0  0  0  0  0  0  0  0  0  0  0  0
   33.7318  -24.7187   23.7202 N   0  0  0  0  0  0  0  0  0  0  0  0
   34.5786  -23.6981   23.5296 C   0  0  0  0  0  0  0  0  0  0  0  0
   35.2465  -23.2249   22.3770 C   0  0  0  0  0  0  0  0  0  0  0  0
   36.0681  -22.1110   22.4803 C   0  0  0  0  0  0  0  0  0  0  0  0
   36.8898  -21.5510   21.0086 Cl  0  0  0  0  0  0  0  0  0  0  0  0
   34.5937  -15.3564   23.3526 C   0  0  0  0  0  0  0  0  0  0  0  0
   31.8035  -12.8497   26.4320 C   0  0  0  0  0  0  0  0  0  0  0  0
   32.7493  -13.8188   25.9486 N   0  0  0  0  0  0  0  0  0  0  0  0
   33.4126  -14.7658   26.6597 C   0  0  0  0  0  0  0  0  0  0  0  0
   34.1821  -15.4594   25.8540 N   0  0  0  0  0  0  0  0  0  0  0  0
   33.9421  -14.8894   24.6204 C   0  0  0  0  0  0  0  0  0  0  0  0
   33.0763  -13.8635   24.6460 N   0  0  0  0  0  0  0  0  0  0  0  0
   38.4445  -17.9121   24.7076 C   0  0  0  0  0  0  0  0  0  0  0  0
   39.4715  -17.8903   23.5792 C   0  0  0  0  0  0  0  0  0  0  0  0
   39.0898  -18.0689   22.2444 C   0  0  0  0  0  0  0  0  0  0  0  0
   40.0577  -18.0216   21.2553 C   0  0  0  0  0  0  0  0  0  0  0  0
   39.7606  -18.1850   19.9333 F   0  0  0  0  0  0  0  0  0  0  0  0
   41.3800  -17.8248   21.5891 C   0  0  0  0  0  0  0  0  0  0  0  0
   42.2850  -17.7951   20.5811 F   0  0  0  0  0  0  0  0  0  0  0  0
   41.7663  -17.6529   22.9059 C   0  0  0  0  0  0  0  0  0  0  0  0
   40.8047  -17.6908   23.8939 C   0  0  0  0  0  0  0  0  0  0  0  0
   41.1595  -17.5183   25.1935 F   0  0  0  0  0  0  0  0  0  0  0  0
 23 24  1  0  0  0
 24 25  1  0  0  0
 25 26  2  0  0  0
 26 27  1  0  0  0
 27 22  1  0  0  0
 22  1  1  0  0  0
  1  2  1  0  0  0
  2  3  2  0  0  0
  2  4  1  0  0  0
  4  5  2  0  0  0
  5  9  1  0  0  0
  9 11  1  0  0  0
 11 12  2  0  0  0
 12 13  1  0  0  0
 13 14  2  0  0  0
 14 15  1  0  0  0
 15 16  1  0  0  0
 15 17  1  0  0  0
 17 18  2  0  0  0
 18 19  1  0  0  0
 19 20  2  0  0  0
 20 21  1  0  0  0
  5  6  1  0  0  0
  6 29  1  0  0  0
 29 30  1  0  0  0
 30 31  2  0  0  0
 31 32  1  0  0  0
 32 33  1  0  0  0
 32 34  2  0  0  0
 34 35  1  0  0  0
 34 36  1  0  0  0
 36 37  2  0  0  0
 37 38  1  0  0  0
  6  7  1  0  0  0
  7  8  2  0  0  0
 27 28  2  0  0  0
 28 24  1  0  0  0
  7  1  1  0  0  0
 20 11  1  0  0  0
 37 30  1  0  0  0
 18 13  1  0  0  0
  9 10  1  0  0  0
M  END
> <minimizedAffinity>
-9.79857

> <minimizedRMSD>
0.85643

$$$$



 38 42  0  0  0  0  0  0  0  0999 V2000
   35.6716  -17.3735   25.8601 N   0  0  0  0  0  0  0  0  0  0  0  0
   34.8446  -18.3386   25.4794 C   0  0  0  0  0  0  0  0  0  0  0  0
   33.5082  -18.1602   25.4561 O   0  0  0  0  0  0  0  0  0  0  0  0
   35.3359  -19.5413   25.1684 N   0  0  0  0  0  0  0  0  0  0  0  0
   36.6258  -19.7343   25.1942 C   0  0  0  0  0  0  0  0  0  0  0  0
   37.4627  -18.7654   25.5618 N   0  0  0  0  0  0  0  0  0  0  0  0
   36.9786  -17.5678   25.8910 C   0  0  0  0  0  0  0  0  0  0  0  0
   37.7187  -16.6993   26.2366 O   0  0  0  0  0  0  0  0  0  0  0  0
   37.1002  -21.0411   24.8060 N   0  0  0  0  0  0  0  0  0  0  0  0
   38.0631  -21.2457   24.7937 H   0  0  0  0  0  0  0  0  0  0  0  0
   36.1197  -22.0467   24.4337 C   0  0  0  0  0  0  0  0  0  0  0  0
   35.4282  -22.6992   25.4620 C   0  0  0  0  0  0  0  0  0  0  0  0
   34.4582  -23.6734   25.1438 C   0  0  0  0  0  0  0  0  0  0  0  0
   33.5825  -24.5065   25.9153 C   0  0  0  0  0  0  0  0  0  0  0  0
   32.8863  -25.2327   25.0634 N   0  0  0  0  0  0  0  0  0  0  0  0
   31.8815  -26.2099   25.4224 C   0  0  0  0  0  0  0  0  0  0  0  0
   33.2297  -24.9385   23.8101 N   0  0  0  0  0  0  0  0  0  0  0  0
   34.1891  -24.0033   23.8176 C   0  0  0  0  0  0  0  0  0  0  0  0
   34.8812  -23.3488   22.7729 C   0  0  0  0  0  0  0  0  0  0  0  0
   35.8339  -22.3902   23.0888 C   0  0  0  0  0  0  0  0  0  0  0  0
   36.6813  -21.5938   21.7464 Cl  0  0  0  0  0  0  0  0  0  0  0  0
   35.1112  -16.0651   26.1328 C   0  0  0  0  0  0  0  0  0  0  0  0
   34.7446  -14.9386   21.4083 C   0  0  0  0  0  0  0  0  0  0  0  0
   34.5405  -14.8938   22.8311 N   0  0  0  0  0  0  0  0  0  0  0  0
   33.7464  -14.0516   23.5399 C   0  0  0  0  0  0  0  0  0  0  0  0
   33.8342  -14.3365   24.8190 N   0  0  0  0  0  0  0  0  0  0  0  0
   34.7117  -15.3954   24.8463 C   0  0  0  0  0  0  0  0  0  0  0  0
   35.1790  -15.7565   23.6374 N   0  0  0  0  0  0  0  0  0  0  0  0
   38.8990  -18.9919   25.6022 C   0  0  0  0  0  0  0  0  0  0  0  0
   39.5582  -18.4541   24.3355 C   0  0  0  0  0  0  0  0  0  0  0  0
   38.9987  -18.6795   23.0724 C   0  0  0  0  0  0  0  0  0  0  0  0
   39.6254  -18.1541   21.9551 C   0  0  0  0  0  0  0  0  0  0  0  0
   39.1380  -18.3309   20.6926 F   0  0  0  0  0  0  0  0  0  0  0  0
   40.7962  -17.4399   22.0893 C   0  0  0  0  0  0  0  0  0  0  0  0
   41.3698  -16.9556   20.9613 F   0  0  0  0  0  0  0  0  0  0  0  0
   41.3584  -17.2172   23.3331 C   0  0  0  0  0  0  0  0  0  0  0  0
   40.7334  -17.7315   24.4497 C   0  0  0  0  0  0  0  0  0  0  0  0
   41.2635  -17.5205   25.6822 F   0  0  0  0  0  0  0  0  0  0  0  0
 23 24  1  0  0  0
 24 25  1  0  0  0
 25 26  2  0  0  0
 26 27  1  0  0  0
 27 22  1  0  0  0
 22  1  1  0  0  0
  1  2  1  0  0  0
  2  3  2  0  0  0
  2  4  1  0  0  0
  4  5  2  0  0  0
  5  9  1  0  0  0
  9 11  1  0  0  0
 11 12  2  0  0  0
 12 13  1  0  0  0
 13 14  2  0  0  0
 14 15  1  0  0  0
 15 16  1  0  0  0
 15 17  1  0  0  0
 17 18  2  0  0  0
 18 19  1  0  0  0
 19 20  2  0  0  0
 20 21  1  0  0  0
  5  6  1  0  0  0
  6 29  1  0  0  0
 29 30  1  0  0  0
 30 31  2  0  0  0
 31 32  1  0  0  0
 32 33  1  0  0  0
 32 34  2  0  0  0
 34 35  1  0  0  0
 34 36  1  0  0  0
 36 37  2  0  0  0
 37 38  1  0  0  0
  6  7  1  0  0  0
  7  8  2  0  0  0
 27 28  2  0  0  0
 28 24  1  0  0  0
  7  1  1  0  0  0
 20 11  1  0  0  0
 37 30  1  0  0  0
 18 13  1  0  0  0
  9 10  1  0  0  0
M  END
> <minimizedAffinity>
-5.77215

> <minimizedRMSD>
2.07565

$$$$



 38 42  0  0  0  0  0  0  0  0999 V2000
   34.9831  -16.4960   23.3605 N   0  0  0  0  0  0  0  0  0  0  0  0
   34.3289  -17.6230   23.1108 C   0  0  0  0  0  0  0  0  0  0  0  0
   33.1673  -17.6331   22.4263 O   0  0  0  0  0  0  0  0  0  0  0  0
   34.7976  -18.7766   23.5946 N   0  0  0  0  0  0  0  0  0  0  0  0
   35.9160  -18.7844   24.2662 C   0  0  0  0  0  0  0  0  0  0  0  0
   36.5835  -17.6579   24.5105 N   0  0  0  0  0  0  0  0  0  0  0  0
   36.1128  -16.5004   24.0461 C   0  0  0  0  0  0  0  0  0  0  0  0
   36.6957  -15.4853   24.2727 O   0  0  0  0  0  0  0  0  0  0  0  0
   36.3941  -20.0659   24.7270 N   0  0  0  0  0  0  0  0  0  0  0  0
   37.1944  -20.1313   25.2966 H   0  0  0  0  0  0  0  0  0  0  0  0
   35.6636  -21.2571   24.3284 C   0  0  0  0  0  0  0  0  0  0  0  0
   34.7951  -21.8356   25.2624 C   0  0  0  0  0  0  0  0  0  0  0  0
   34.0568  -22.9859   24.9117 C   0  0  0  0  0  0  0  0  0  0  0  0
   33.1004  -23.8100   25.5917 C   0  0  0  0  0  0  0  0  0  0  0  0
   32.7410  -24.7614   24.7530 N   0  0  0  0  0  0  0  0  0  0  0  0
   31.7875  -25.8117   25.0376 C   0  0  0  0  0  0  0  0  0  0  0  0
   33.3753  -24.6217   23.5897 N   0  0  0  0  0  0  0  0  0  0  0  0
   34.1912  -23.5608   23.6502 C   0  0  0  0  0  0  0  0  0  0  0  0
   35.0645  -22.9828   22.7004 C   0  0  0  0  0  0  0  0  0  0  0  0
   35.7886  -21.8508   23.0477 C   0  0  0  0  0  0  0  0  0  0  0  0
   36.8754  -21.1580   21.8257 Cl  0  0  0  0  0  0  0  0  0  0  0  0
   34.4784  -15.2715   22.7723 C   0  0  0  0  0  0  0  0  0  0  0  0
   32.2597  -13.7832   26.8483 C   0  0  0  0  0  0  0  0  0  0  0  0
   32.8165  -13.7665   25.5229 N   0  0  0  0  0  0  0  0  0  0  0  0
   32.8178  -12.7443   24.6309 C   0  0  0  0  0  0  0  0  0  0  0  0
   33.4167  -13.1271   23.5277 N   0  0  0  0  0  0  0  0  0  0  0  0
   33.7683  -14.4314   23.7939 C   0  0  0  0  0  0  0  0  0  0  0  0
   33.4297  -14.8538   25.0256 N   0  0  0  0  0  0  0  0  0  0  0  0
   37.8228  -17.6720   25.2722 C   0  0  0  0  0  0  0  0  0  0  0  0
   39.0237  -17.7295   24.3326 C   0  0  0  0  0  0  0  0  0  0  0  0
   38.8687  -18.0110   22.9702 C   0  0  0  0  0  0  0  0  0  0  0  0
   39.9883  -18.0328   22.1557 C   0  0  0  0  0  0  0  0  0  0  0  0
   39.9147  -18.2978   20.8189 F   0  0  0  0  0  0  0  0  0  0  0  0
   41.2377  -17.8030   22.6894 C   0  0  0  0  0  0  0  0  0  0  0  0
   42.2982  -17.8442   21.8471 F   0  0  0  0  0  0  0  0  0  0  0  0
   41.4001  -17.5294   24.0353 C   0  0  0  0  0  0  0  0  0  0  0  0
   40.2870  -17.4983   24.8491 C   0  0  0  0  0  0  0  0  0  0  0  0
   40.4212  -17.2256   26.1728 F   0  0  0  0  0  0  0  0  0  0  0  0
 23 24  1  0  0  0
 24 25  1  0  0  0
 25 26  2  0  0  0
 26 27  1  0  0  0
 27 22  1  0  0  0
 22  1  1  0  0  0
  1  2  1  0  0  0
  2  3  2  0  0  0
  2  4  1  0  0  0
  4  5  2  0  0  0
  5  9  1  0  0  0
  9 11  1  0  0  0
 11 12  2  0  0  0
 12 13  1  0  0  0
 13 14  2  0  0  0
 14 15  1  0  0  0
 15 16  1  0  0  0
 15 17  1  0  0  0
 17 18  2  0  0  0
 18 19  1  0  0  0
 19 20  2  0  0  0
 20 21  1  0  0  0
  5  6  1  0  0  0
  6 29  1  0  0  0
 29 30  1  0  0  0
 30 31  2  0  0  0
 31 32  1  0  0  0
 32 33  1  0  0  0
 32 34  2  0  0  0
 34 35  1  0  0  0
 34 36  1  0  0  0
 36 37  2  0  0  0
 37 38  1  0  0  0
  6  7  1  0  0  0
  7  8  2  0  0  0
 27 28  2  0  0  0
 28 24  1  0  0  0
  7  1  1  0  0  0
 20 11  1  0  0  0
 37 30  1  0  0  0
 18 13  1  0  0  0
  9 10  1  0  0  0
M  END
> <minimizedAffinity>
-10.72539

> <minimizedRMSD>
0.38472

$$$$



 38 42  0  0  0  0  0  0  0  0999 V2000
   35.6716  -17.3735   25.8601 N   0  0  0  0  0  0  0  0  0  0  0  0
   34.8446  -18.3386   25.4794 C   0  0  0  0  0  0  0  0  0  0  0  0
   33.5082  -18.1602   25.4561 O   0  0  0  0  0  0  0  0  0  0  0  0
   35.3359  -19.5413   25.1684 N   0  0  0  0  0  0  0  0  0  0  0  0
   36.6258  -19.7343   25.1942 C   0  0  0  0  0  0  0  0  0  0  0  0
   37.4627  -18.7654   25.5618 N   0  0  0  0  0  0  0  0  0  0  0  0
   36.9786  -17.5678   25.8910 C   0  0  0  0  0  0  0  0  0  0  0  0
   37.7187  -16.6993   26.2366 O   0  0  0  0  0  0  0  0  0  0  0  0
   37.1002  -21.0411   24.8060 N   0  0  0  0  0  0  0  0  0  0  0  0
   38.0631  -21.2457   24.7937 H   0  0  0  0  0  0  0  0  0  0  0  0
   36.1197  -22.0467   24.4337 C   0  0  0  0  0  0  0  0  0  0  0  0
   35.4282  -22.6992   25.4620 C   0  0  0  0  0  0  0  0  0  0  0  0
   34.4582  -23.6734   25.1438 C   0  0  0  0  0  0  0  0  0  0  0  0
   33.5825  -24.5065   25.9153 C   0  0  0  0  0  0  0  0  0  0  0  0
   32.8863  -25.2327   25.0634 N   0  0  0  0  0  0  0  0  0  0  0  0
   31.8815  -26.2099   25.4224 C   0  0  0  0  0  0  0  0  0  0  0  0
   33.2297  -24.9385   23.8101 N   0  0  0  0  0  0  0  0  0  0  0  0
   34.1891  -24.0033   23.8176 C   0  0  0  0  0  0  0  0  0  0  0  0
   34.8812  -23.3488   22.7729 C   0  0  0  0  0  0  0  0  0  0  0  0
   35.8339  -22.3902   23.0888 C   0  0  0  0  0  0  0  0  0  0  0  0
   36.6813  -21.5938   21.7464 Cl  0  0  0  0  0  0  0  0  0  0  0  0
   35.1112  -16.0651   26.1328 C   0  0  0  0  0  0  0  0  0  0  0  0
   34.7446  -14.9386   21.4083 C   0  0  0  0  0  0  0  0  0  0  0  0
   34.5405  -14.8938   22.8311 N   0  0  0  0  0  0  0  0  0  0  0  0
   33.7464  -14.0516   23.5399 C   0  0  0  0  0  0  0  0  0  0  0  0
   33.8342  -14.3365   24.8190 N   0  0  0  0  0  0  0  0  0  0  0  0
   34.7117  -15.3954   24.8463 C   0  0  0  0  0  0  0  0  0  0  0  0
   35.1790  -15.7565   23.6374 N   0  0  0  0  0  0  0  0  0  0  0  0
   38.8990  -18.9919   25.6022 C   0  0  0  0  0  0  0  0  0  0  0  0
   39.5582  -18.4541   24.3355 C   0  0  0  0  0  0  0  0  0  0  0  0
   38.9987  -18.6795   23.0724 C   0  0  0  0  0  0  0  0  0  0  0  0
   39.6254  -18.1541   21.9551 C   0  0  0  0  0  0  0  0  0  0  0  0
   39.1380  -18.3309   20.6926 F   0  0  0  0  0  0  0  0  0  0  0  0
   40.7962  -17.4399   22.0893 C   0  0  0  0  0  0  0  0  0  0  0  0
   41.3698  -16.9556   20.9613 F   0  0  0  0  0  0  0  0  0  0  0  0
   41.3584  -17.2172   23.3331 C   0  0  0  0  0  0  0  0  0  0  0  0
   40.7334  -17.7315   24.4497 C   0  0  0  0  0  0  0  0  0  0  0  0
   41.2635  -17.5205   25.6822 F   0  0  0  0  0  0  0  0  0  0  0  0
 23 24  1  0  0  0
 24 25  1  0  0  0
 25 26  2  0  0  0
 26 27  1  0  0  0
 27 22  1  0  0  0
 22  1  1  0  0  0
  1  2  1  0  0  0
  2  3  2  0  0  0
  2  4  1  0  0  0
  4  5  2  0  0  0
  5  9  1  0  0  0
  9 11  1  0  0  0
 11 12  2  0  0  0
 12 13  1  0  0  0
 13 14  2  0  0  0
 14 15  1  0  0  0
 15 16  1  0  0  0
 15 17  1  0  0  0
 17 18  2  0  0  0
 18 19  1  0  0  0
 19 20  2  0  0  0
 20 21  1  0  0  0
  5  6  1  0  0  0
  6 29  1  0  0  0
 29 30  1  0  0  0
 30 31  2  0  0  0
 31 32  1  0  0  0
 32 33  1  0  0  0
 32 34  2  0  0  0
 34 35  1  0  0  0
 34 36  1  0  0  0
 36 37  2  0  0  0
 37 38  1  0  0  0
  6  7  1  0  0  0
  7  8  2  0  0  0
 27 28  2  0  0  0
 28 24  1  0  0  0
  7  1  1  0  0  0
 20 11  1  0  0  0
 37 30  1  0  0  0
 18 13  1  0  0  0
  9 10  1  0  0  0
M  END
> <minimizedAffinity>
-5.77215

> <minimizedRMSD>
2.07565

$$$$
